Version 4
SHEET 1 880 680
SYMBOL PowerProducts\\LT1336 224 176 R0
SYMATTR InstName U1
SYMBOL PowerProducts\\LT1158 -560 336 R0
SYMATTR InstName U2
