Version 4
SHEET 1 996 680
WIRE -48 48 -192 48
WIRE 0 48 -48 48
WIRE 112 48 64 48
WIRE 176 48 112 48
WIRE 272 48 240 48
WIRE -192 80 -192 48
WIRE 576 80 464 80
WIRE 768 80 576 80
WIRE 464 96 464 80
WIRE 112 112 112 48
WIRE 336 112 320 112
WIRE 768 160 768 80
WIRE -48 176 -48 48
WIRE -16 176 -48 176
WIRE 320 176 320 112
WIRE 320 176 240 176
WIRE 400 176 400 112
WIRE 416 176 400 176
WIRE -192 192 -192 160
WIRE -16 256 -192 256
WIRE 272 256 272 48
WIRE 272 256 240 256
WIRE 464 256 464 192
WIRE 464 256 272 256
WIRE 592 256 464 256
WIRE 768 256 768 224
WIRE 768 256 704 256
WIRE 592 288 592 256
WIRE 608 288 592 288
WIRE 704 288 704 256
WIRE 704 288 688 288
WIRE 768 304 768 256
WIRE -16 336 -96 336
WIRE 272 336 240 336
WIRE 320 336 272 336
WIRE 416 336 400 336
WIRE 464 336 464 256
WIRE -96 368 -96 336
WIRE 320 400 320 336
WIRE 336 400 320 400
WIRE 400 400 400 336
WIRE 112 416 112 400
WIRE -192 448 -192 256
WIRE 464 464 464 352
WIRE 464 464 416 464
WIRE 768 464 768 368
WIRE 768 464 464 464
WIRE -96 480 -96 448
WIRE 464 480 464 464
WIRE 272 528 272 336
WIRE -192 560 -192 528
WIRE 464 576 464 560
WIRE 464 576 336 576
WIRE 272 656 272 624
WIRE 464 656 464 576
WIRE 464 656 272 656
WIRE 480 656 464 656
FLAG 112 416 0
FLAG -96 480 0
FLAG -192 192 0
FLAG -192 560 0
FLAG 576 80 HV
FLAG -592 -32 0
FLAG -592 -112 HV
FLAG 464 656 0
SYMBOL voltage -192 64 R0
SYMATTR InstName V1
SYMATTR Value 10
SYMBOL voltage -96 352 R0
WINDOW 123 0 0 Left 2
WINDOW 39 0 0 Left 2
SYMATTR InstName V2
SYMATTR Value PULSE(0 5 25u 10n 10n 25u 50u)
SYMBOL nmos 416 96 R0
SYMATTR InstName Q1
SYMATTR Value SPA11N60C3
SYMBOL nmos 416 256 R0
SYMATTR InstName Q2
SYMATTR Value SPA11N60C3
SYMBOL cap 240 32 R90
WINDOW 0 0 32 VBottom 2
WINDOW 3 32 32 VTop 2
SYMATTR InstName C1
SYMATTR Value 1µ
SYMBOL schottky 0 64 R270
WINDOW 0 32 32 VTop 2
WINDOW 3 0 32 VBottom 2
SYMATTR InstName D1
SYMATTR Value 1N5819
SYMATTR Description Diode
SYMATTR Type diode
SYMBOL PowerProducts\\LTC4446 112 256 R0
SYMATTR InstName U1
SYMBOL voltage -192 432 R0
WINDOW 123 0 0 Left 2
WINDOW 39 0 0 Left 2
SYMATTR InstName V4
SYMATTR Value PULSE(5 0 25u 10n 10n 25u 50u)
SYMBOL cap 752 160 R0
SYMATTR InstName C3
SYMATTR Value 470µ
SYMBOL cap 752 304 R0
SYMATTR InstName C4
SYMATTR Value 470µ
SYMBOL res 704 272 R90
WINDOW 0 0 56 VBottom 2
WINDOW 3 32 56 VTop 2
SYMATTR InstName R1
SYMATTR Value 10
SYMBOL voltage -592 -128 R0
WINDOW 123 0 0 Left 2
WINDOW 39 0 0 Left 2
SYMATTR InstName V5
SYMATTR Value 120
SYMBOL npn 336 528 M0
SYMATTR InstName Q3
SYMATTR Value 2N2222
SYMBOL res 448 464 R0
SYMATTR InstName R2
SYMATTR Value 6
SYMBOL res 416 160 R90
WINDOW 0 0 56 VBottom 2
WINDOW 3 32 56 VTop 2
SYMATTR InstName R3
SYMATTR Value 10
SYMBOL res 416 320 R90
WINDOW 0 0 56 VBottom 2
WINDOW 3 32 56 VTop 2
SYMATTR InstName R4
SYMATTR Value 10
SYMBOL diode 400 384 R90
WINDOW 0 0 32 VBottom 2
WINDOW 3 32 32 VTop 2
SYMATTR InstName D2
SYMATTR Value 1N4148
SYMBOL diode 400 96 R90
WINDOW 0 0 32 VBottom 2
WINDOW 3 32 32 VTop 2
SYMATTR InstName D3
SYMATTR Value 1N4148
TEXT 472 440 Left 2 !.tran 300u
