Version 4
SHEET 1 996 680
WIRE -48 48 -192 48
WIRE 0 48 -48 48
WIRE 112 48 64 48
WIRE 176 48 112 48
WIRE 272 48 240 48
WIRE -192 80 -192 48
WIRE 496 80 336 80
WIRE 768 80 496 80
WIRE 336 96 336 80
WIRE 496 96 496 80
WIRE 112 112 112 48
WIRE 768 160 768 80
WIRE -48 176 -48 48
WIRE -16 176 -48 176
WIRE 288 176 240 176
WIRE -192 192 -192 160
WIRE 496 208 496 176
WIRE -16 256 -192 256
WIRE 272 256 272 48
WIRE 272 256 240 256
WIRE 336 256 336 192
WIRE 336 256 272 256
WIRE 512 256 336 256
WIRE 768 256 768 224
WIRE 768 256 624 256
WIRE 512 288 512 256
WIRE 528 288 512 288
WIRE 624 288 624 256
WIRE 624 288 608 288
WIRE 768 304 768 256
WIRE -16 336 -96 336
WIRE 288 336 240 336
WIRE 336 336 336 256
WIRE -96 368 -96 336
WIRE 512 384 512 288
WIRE 528 384 512 384
WIRE 624 384 624 288
WIRE 624 384 592 384
WIRE 112 416 112 400
WIRE -192 448 -192 256
WIRE 336 464 336 352
WIRE 768 464 768 368
WIRE 768 464 336 464
WIRE -96 480 -96 448
WIRE 336 496 336 464
WIRE -192 560 -192 528
FLAG 112 416 0
FLAG -96 480 0
FLAG -192 192 0
FLAG 336 496 0
FLAG 496 208 0
FLAG -192 560 0
SYMBOL voltage -192 64 R0
SYMATTR InstName V1
SYMATTR Value 10
SYMBOL voltage -96 352 R0
WINDOW 123 0 0 Left 2
WINDOW 39 0 0 Left 2
SYMATTR InstName V2
SYMATTR Value PULSE(0 5 20n 10n 10n .25u .5u)
SYMBOL nmos 288 96 R0
SYMATTR InstName Q1
SYMATTR Value SPA11N60C3
SYMBOL nmos 288 256 R0
SYMATTR InstName Q2
SYMATTR Value SPA11N60C3
SYMBOL cap 240 32 R90
WINDOW 0 0 32 VBottom 2
WINDOW 3 32 32 VTop 2
SYMATTR InstName C1
SYMATTR Value 1µ
SYMBOL schottky 0 64 R270
WINDOW 0 32 32 VTop 2
WINDOW 3 0 32 VBottom 2
SYMATTR InstName D1
SYMATTR Value 1N5819
SYMATTR Description Diode
SYMATTR Type diode
SYMBOL voltage 496 80 R0
WINDOW 123 0 0 Left 2
WINDOW 39 0 0 Left 2
SYMATTR InstName V3
SYMATTR Value 120
SYMBOL PowerProducts\\LTC4446 112 256 R0
SYMATTR InstName U1
SYMBOL voltage -192 432 R0
WINDOW 123 0 0 Left 2
WINDOW 39 0 0 Left 2
SYMATTR InstName V4
SYMATTR Value PULSE(5 0 20n 10n 10n .25u .5u)
SYMBOL cap 592 368 R90
WINDOW 0 0 32 VBottom 2
WINDOW 3 32 32 VTop 2
SYMATTR InstName C2
SYMATTR Value 47pf
SYMBOL cap 752 160 R0
SYMATTR InstName C3
SYMATTR Value 470µ
SYMBOL cap 752 304 R0
SYMATTR InstName C4
SYMATTR Value 470µ
SYMBOL res 624 272 R90
WINDOW 0 0 56 VBottom 2
WINDOW 3 32 56 VTop 2
SYMATTR InstName R1
SYMATTR Value 10
TEXT 392 440 Left 2 !.tran 30u startup
